OPT_V9/4ts_w_storgae_myc/powerflow_results_t4.txt
Pandapower Network Debug Info
==================================================

BUS:
       vm_pu  va_degree      p_mw    q_mvar
0   1.001531   0.270022 -0.007406  0.000864
1   1.002363   0.327535  0.001578  0.001655
2   1.006225   0.393237 -0.003293 -0.001289
3   0.998352   0.334221  0.002142  0.003348
4   1.001927   0.439957 -0.002862  0.002364
5   1.002606   0.486173 -0.004166  0.005830
6   1.005987   0.571918 -0.003272 -0.000817
7   1.002740   0.236134 -0.005489  0.001661
8   1.000705   0.120432 -0.005595  0.002587
9   0.999942   0.002948  0.002562  0.011174
10  0.999933   0.003226  0.003374  0.009993
11  0.999927   0.003412  0.004440  0.010098
12  0.999920   0.006825  0.002972  0.005426
13  0.999897   0.007302  0.005356  0.010623
14  0.999904   0.007121  0.009658  0.012523
15  0.999968   0.001922  0.000000  0.000000
16  0.999969   0.001924  0.000000  0.000000
17  0.999922   0.006763  0.000000  0.000000
18  0.999922   0.006770  0.000000  0.000000
19  1.000000   0.000000 -0.003476 -0.040889
20  1.000000   0.000006  0.000000  0.000000
21  1.000000   0.000000  0.003246 -0.045300
22  1.000000   0.000006  0.000000  0.000000
--------------------------------------------------

LINE:
    p_from_mw  q_from_mvar   p_to_mw  q_to_mvar         pl_mw       ql_mvar  i_from_ka   i_to_ka      i_ka  vm_from_pu  va_from_degree  vm_to_pu  va_to_degree  loading_percent
0    0.003466     0.036889 -0.003465  -0.036888  1.342825e-06  1.047023e-06   0.001426  0.001426  0.001426    1.000000        0.000006  0.999968      0.001922         0.620056
1   -0.003256     0.041300  0.003260  -0.041297  4.616628e-06  3.599661e-06   0.001595  0.001595  0.001595    1.000000        0.000006  0.999922      0.006763         0.693294
2    0.010376     0.031266 -0.010375  -0.031265  8.392441e-07  6.543724e-07   0.001268  0.001268  0.001268    0.999968        0.001922  0.999942      0.002948         0.551309
3    0.002972     0.005426 -0.002972  -0.005426  1.323873e-08  1.032246e-08   0.000238  0.000238  0.000238    0.999922        0.006763  0.999920      0.006825         0.103542
4    0.015015     0.023146 -0.015014  -0.023146  4.162798e-07  3.245802e-07   0.001062  0.001062  0.001062    0.999922        0.006763  0.999904      0.007121         0.461744
5   -0.006921     0.004622  0.006954  -0.004597  3.240250e-05  2.526476e-05   0.012014  0.012014  0.012014    0.999969        0.001924  1.001531      0.270022         5.223331
6   -0.007366     0.005069  0.007428  -0.005021  6.203402e-05  4.836895e-05   0.012907  0.012907  0.012907    0.999922        0.006770  1.002606      0.486173         5.611601
7   -0.005467     0.001678  0.005489  -0.001661  2.210079e-05  1.723235e-05   0.008255  0.008255  0.008255    0.999922        0.006770  1.002740      0.236134         3.589288
8   -0.008424     0.004977  0.008440  -0.004964  1.646155e-05  1.283534e-05   0.014123  0.014123  0.014123    0.999922        0.006770  1.000705      0.120432         6.140469
9   -0.007813    -0.020091  0.007814   0.020092  1.607303e-07  1.253241e-07   0.000830  0.000830  0.000830    0.999933        0.003226  0.999942      0.002948         0.360780
10  -0.004440    -0.010098  0.004440   0.010098  5.951799e-08  4.640716e-08   0.000425  0.000425  0.000425    0.999927        0.003412  0.999933      0.003226         0.184612
11   0.005356     0.010623 -0.005356  -0.010623  6.923164e-08  5.398105e-08   0.000458  0.000458  0.000458    0.999904        0.007121  0.999897      0.007302         0.199108
12   0.001703    -0.000376 -0.001701   0.000377  1.790551e-06  1.396122e-06   0.002511  0.002511  0.002511    1.002363        0.327535  1.001531      0.270022         1.091746
13  -0.002142    -0.003348  0.002153   0.003357  1.058478e-05  8.253131e-06   0.005747  0.005747  0.005747    0.998352        0.334221  1.001531      0.270022         2.498659
14   0.003293     0.001289 -0.003281  -0.001280  1.116921e-05  8.708815e-06   0.005072  0.005072  0.005072    1.006225        0.393237  1.002363      0.327535         2.205139
15  -0.002845     0.002377  0.002862  -0.002364  1.669997e-05  1.302124e-05   0.005347  0.005347  0.005347    1.000705        0.120432  1.001927      0.439957         2.324920
16   0.003272     0.000817 -0.003262  -0.000810  9.782621e-06  7.627671e-06   0.004838  0.004838  0.004838    1.005987        0.571918  1.002606      0.486173         2.103606
--------------------------------------------------

TRAFO:
    p_hv_mw  q_hv_mvar   p_lv_mw  q_lv_mvar    pl_mw  ql_mvar   i_hv_ka   i_lv_ka  vm_hv_pu  va_hv_degree  vm_lv_pu  va_lv_degree  loading_percent
0 -0.006911   0.005622  0.006921  -0.004622  0.00001    0.001  0.000343  0.012014  0.999968      0.001922  0.999969      0.001924         0.089097
1 -0.021246   0.012724  0.021256  -0.011724  0.00001    0.001  0.000953  0.035041  0.999922      0.006763  0.999922      0.006770         0.247670
2  0.003476   0.040889 -0.003466  -0.036889  0.00001    0.004  0.000338  0.001426  1.000000      0.000000  1.000000      0.000006         0.102592
3 -0.003246   0.045300  0.003256  -0.041300  0.00001    0.004  0.000375  0.001595  1.000000      0.000000  1.000000      0.000006         0.113541
--------------------------------------------------
